European  Gridlabd Model/output_voltage_1440.csv
# output_voltage_1440.csv run at 2012-04-09 00:00:00 UTC on 1888 nodes
node_name,voltA_mag,voltA_angle,voltB_mag,voltB_angle,voltC_mag,voltC_angle
SourceBus,6668.395609,0.000000,6668.395609,4.188790,6668.395609,2.094395
Bus1,252.105150,-0.524232,252.132177,3.664770,252.120902,1.570215
Bus2,252.095634,-0.524230,252.129000,3.664768,252.114387,1.570228
Bus3,252.094637,-0.524230,252.128667,3.664768,252.113704,1.570229
Bus4,252.093702,-0.524230,252.128355,3.664768,252.113064,1.570230
Bus5,252.092887,-0.524230,252.128083,3.664768,252.112507,1.570231
Bus6,252.091603,-0.524229,252.127654,3.664768,252.111628,1.570233
Bus7,252.004187,-0.524214,252.098469,3.664752,252.051783,1.570345
Bus8,252.000271,-0.524213,252.097161,3.664752,252.049102,1.570350
Bus9,251.997013,-0.524213,252.096073,3.664751,252.046872,1.570354
Bus10,251.994153,-0.524212,252.095119,3.664751,252.044914,1.570358
Bus11,251.992019,-0.524212,252.094406,3.664750,252.043453,1.570360
Bus12,251.990016,-0.524211,252.093737,3.664750,252.042082,1.570363
Bus13,251.988784,-0.524211,252.093326,3.664750,252.041238,1.570365
Bus14,251.985717,-0.524211,252.092302,3.664749,252.039139,1.570368
Bus15,251.960874,-0.524206,252.084008,3.664745,252.022132,1.570400
Bus16,251.960874,-0.524206,252.084008,3.664745,252.022132,1.570400
Bus17,251.930748,-0.524201,252.073950,3.664740,252.001510,1.570439
Bus18,251.960874,-0.524206,252.084008,3.664745,252.022132,1.570400
Bus19,251.928675,-0.524200,252.073258,3.664739,252.000091,1.570442
Bus20,251.960874,-0.524206,252.084008,3.664745,252.022132,1.570400
Bus21,251.926348,-0.524200,252.072481,3.664739,251.998497,1.570445
Bus22,251.960874,-0.524206,252.084008,3.664745,252.022132,1.570400
Bus23,251.922558,-0.524199,252.071215,3.664738,251.995903,1.570449
Bus24,251.960874,-0.524206,252.084008,3.664745,252.022132,1.570400
Bus25,251.915664,-0.524198,252.068914,3.664737,251.991183,1.570458
Bus26,251.960874,-0.524206,252.084008,3.664745,252.022132,1.570400
Bus27,251.904593,-0.524187,252.068947,3.664736,251.991305,1.570459
Bus28,251.842142,-0.524194,252.038816,3.664745,251.927756,1.570554
Bus29,251.960874,-0.524206,252.084008,3.664745,252.022132,1.570400
Bus30,251.902038,-0.524185,252.068954,3.664736,251.991333,1.570459
Bus31,251.904112,-0.524187,252.068948,3.664736,251.991310,1.570459
Bus32,251.822570,-0.524193,252.030804,3.664747,251.910871,1.570579
Bus33,251.960874,-0.524206,252.084008,3.664745,252.022132,1.570400
Bus34,251.896186,-0.524179,252.068972,3.664736,251.991397,1.570459
Bus35,251.904095,-0.524187,252.068948,3.664736,251.991310,1.570459
Bus36,251.822614,-0.524193,252.026784,3.664750,251.910883,1.570579
Bus37,251.762096,-0.524195,252.010458,3.664749,251.859439,1.570663
Bus38,251.960874,-0.524206,252.084008,3.664745,252.022132,1.570400
Bus39,251.904072,-0.524187,252.068948,3.664736,251.991310,1.570459
Bus40,251.822615,-0.524193,252.026655,3.664751,251.910883,1.570579
Bus41,251.822621,-0.524193,252.026098,3.664751,251.910885,1.570579
Bus42,251.720131,-0.524196,251.996340,3.664751,251.823749,1.570721
Bus43,251.762096,-0.524195,252.010458,3.664749,251.859439,1.570663
Bus44,251.960874,-0.524206,252.084008,3.664745,252.022132,1.570400
Bus45,251.904042,-0.524187,252.068948,3.664736,251.991311,1.570459
Bus46,251.822616,-0.524193,252.026596,3.664751,251.910883,1.570579
Bus47,251.822639,-0.524193,252.024449,3.664753,251.910890,1.570579
Bus48,251.688419,-0.524197,251.985671,3.664752,251.796781,1.570764
Bus49,251.762096,-0.524195,252.010458,3.664749,251.859439,1.570663
Bus50,251.960874,-0.524206,252.084008,3.664745,252.022132,1.570400
Bus51,251.903969,-0.524187,252.068949,3.664736,251.991311,1.570459
Bus52,251.822616,-0.524193,252.026535,3.664751,251.910884,1.570579
Bus53,251.683847,-0.524197,251.984132,3.664752,251.792892,1.570771
Bus54,251.688419,-0.524197,251.985671,3.664752,251.796781,1.570764
Bus55,251.762096,-0.524195,252.010458,3.664749,251.859439,1.570663
Bus56,251.960874,-0.524206,252.084008,3.664745,252.022132,1.570400
Bus57,251.903906,-0.524187,252.068949,3.664736,251.991312,1.570459
Bus58,251.822617,-0.524193,252.026476,3.664751,251.910884,1.570579
Bus59,251.663137,-0.524198,251.977165,3.664753,251.775280,1.570799
Bus60,251.688419,-0.524197,251.985671,3.664752,251.796781,1.570764
Bus61,251.762096,-0.524195,252.010458,3.664749,251.859439,1.570663
Bus62,251.960874,-0.524206,252.084008,3.664745,252.022132,1.570400
Bus63,251.903606,-0.524186,252.068950,3.664736,251.991315,1.570459
Bus64,251.822617,-0.524193,252.026441,3.664751,251.910884,1.570579
Bus65,251.660280,-0.524199,251.975617,3.664756,251.771249,1.570804
Bus66,251.634100,-0.524169,251.977252,3.664751,251.775598,1.570801
Bus67,251.688419,-0.524197,251.985671,3.664752,251.796781,1.570764
Bus68,251.762096,-0.524195,252.010458,3.664749,251.859439,1.570663
Bus69,251.960874,-0.524206,252.084008,3.664745,252.022132,1.570400
Bus70,251.902544,-0.524185,252.068953,3.664736,251.991327,1.570459
Bus71,251.822618,-0.524193,252.026372,3.664751,251.910884,1.570579
Bus72,251.626524,-0.524215,251.957326,3.664786,251.723621,1.570853
Bus73,251.626256,-0.524161,251.977275,3.664751,251.775683,1.570801
Bus74,251.627752,-0.524163,251.977271,3.664751,251.775667,1.570801
Bus75,251.688419,-0.524197,251.985671,3.664752,251.796781,1.570764
Bus76,251.762096,-0.524195,252.010458,3.664749,251.859439,1.570663
Bus77,251.960874,-0.524206,252.084008,3.664745,252.022132,1.570400
Bus78,251.822622,-0.524193,252.026022,3.664751,251.910885,1.570579
Bus79,251.614758,-0.524220,251.950951,3.664796,251.707019,1.570870
Bus80,251.688419,-0.524197,251.985671,3.664752,251.796781,1.570764
Bus81,251.762096,-0.524195,252.010458,3.664749,251.859439,1.570663
Bus82,251.960874,-0.524206,252.084008,3.664745,252.022132,1.570400
Bus83,251.822636,-0.524193,252.024705,3.664753,251.910889,1.570579
Bus84,251.612190,-0.524221,251.949559,3.664798,251.703396,1.570874
Bus85,251.688419,-0.524197,251.985671,3.664752,251.796781,1.570764
Bus86,251.762096,-0.524195,252.010458,3.664749,251.859439,1.570663
Bus87,251.960874,-0.524206,252.084008,3.664745,252.022132,1.570400
Bus88,251.606983,-0.524224,251.946738,3.664803,251.696049,1.570882
Bus89,251.688419,-0.524197,251.985671,3.664752,251.796781,1.570764
Bus90,251.762096,-0.524195,252.010458,3.664749,251.859439,1.570663
Bus91,251.960874,-0.524206,252.084008,3.664745,252.022132,1.570400
Bus92,251.602073,-0.524226,251.944077,3.664807,251.689121,1.570889
Bus93,251.762096,-0.524195,252.010458,3.664749,251.859439,1.570663
Bus94,251.960874,-0.524206,252.084008,3.664745,252.022132,1.570400
Bus95,251.599218,-0.524228,251.942531,3.664810,251.685094,1.570893
Bus96,251.762096,-0.524195,252.010458,3.664749,251.859439,1.570663
Bus97,251.960874,-0.524206,252.084008,3.664745,252.022132,1.570400
Bus98,251.597333,-0.524228,251.941509,3.664812,251.682434,1.570896
Bus99,251.762096,-0.524195,252.010458,3.664749,251.859439,1.570663
Bus100,251.960874,-0.524206,252.084008,3.664745,252.022132,1.570400
Bus101,251.594731,-0.524230,251.940099,3.664814,251.678762,1.570900
Bus102,251.762096,-0.524195,252.010458,3.664749,251.859439,1.570663
Bus103,251.960874,-0.524206,252.084008,3.664745,252.022132,1.570400
Bus104,251.594716,-0.524230,251.940007,3.664814,251.678769,1.570900
Bus105,251.593076,-0.524231,251.939637,3.664815,251.676297,1.570903
Bus106,251.762096,-0.524195,252.010458,3.664749,251.859439,1.570663
Bus107,251.594698,-0.524229,251.939895,3.664814,251.678778,1.570899
Bus108,251.592138,-0.524232,251.939375,3.664816,251.674900,1.570904
Bus109,251.762096,-0.524195,252.010458,3.664749,251.859439,1.570663
Bus110,251.594676,-0.524229,251.939765,3.664814,251.678788,1.570899
Bus111,251.555122,-0.524266,251.929033,3.664847,251.619761,1.570973
Bus112,251.762096,-0.524195,252.010458,3.664749,251.859439,1.570663
Bus113,251.594644,-0.524229,251.939568,3.664813,251.678803,1.570899
Bus114,251.551414,-0.524269,251.927997,3.664850,251.614237,1.570980
Bus115,251.762096,-0.524195,252.010458,3.664749,251.859439,1.570663
Bus116,251.594603,-0.524229,251.939314,3.664813,251.678823,1.570899
Bus117,251.551298,-0.524270,251.928055,3.664850,251.613838,1.570980
Bus118,251.541022,-0.524279,251.924243,3.664854,251.600807,1.570992
Bus119,251.762096,-0.524195,252.010458,3.664749,251.859439,1.570663
Bus120,251.594573,-0.524229,251.939131,3.664813,251.678837,1.570898
Bus121,251.551298,-0.524270,251.928055,3.664850,251.613838,1.570980
Bus122,251.551241,-0.524270,251.928083,3.664850,251.613643,1.570979
Bus123,251.522282,-0.524296,251.917471,3.664860,251.576587,1.571014
Bus124,251.762096,-0.524195,252.010458,3.664749,251.859439,1.570663
Bus125,251.594531,-0.524229,251.938873,3.664813,251.678858,1.570898
Bus126,251.551298,-0.524270,251.928055,3.664850,251.613838,1.570980
Bus127,251.550976,-0.524272,251.928213,3.664851,251.612728,1.570979
Bus128,251.513855,-0.524304,251.914426,3.664863,251.565695,1.571024
Bus129,251.762096,-0.524195,252.010458,3.664749,251.859439,1.570663
Bus130,251.594486,-0.524228,251.938595,3.664812,251.678879,1.570898
Bus131,251.551298,-0.524270,251.928055,3.664850,251.613838,1.570980
Bus132,251.546635,-0.524267,251.928226,3.664850,251.612776,1.570979
Bus133,251.551509,-0.524276,251.928453,3.664854,251.609736,1.570977
Bus134,251.511347,-0.524306,251.913520,3.664864,251.562454,1.571027
Bus135,251.762096,-0.524195,252.010458,3.664749,251.859439,1.570663
Bus136,251.594443,-0.524228,251.938332,3.664812,251.678900,1.570897
Bus137,251.551298,-0.524270,251.928055,3.664850,251.613838,1.570980
Bus138,251.546261,-0.524267,251.928228,3.664850,251.612780,1.570979
Bus139,251.551907,-0.524279,251.928631,3.664857,251.607509,1.570975
Bus140,251.508517,-0.524309,251.912497,3.664865,251.558796,1.571030
Bus141,251.762096,-0.524195,252.010458,3.664749,251.859439,1.570663
Bus142,251.594373,-0.524228,251.937899,3.664812,251.678934,1.570897
Bus143,251.551298,-0.524270,251.928055,3.664850,251.613838,1.570980
Bus144,251.545894,-0.524267,251.928229,3.664850,251.612784,1.570979
Bus145,251.552172,-0.524281,251.928750,3.664858,251.606018,1.570974
Bus146,251.505855,-0.524311,251.911535,3.664866,251.555356,1.571033
Bus147,251.762096,-0.524195,252.010458,3.664749,251.859439,1.570663
Bus148,251.594038,-0.524226,251.935844,3.664810,251.679094,1.570894
Bus149,251.551298,-0.524270,251.928055,3.664850,251.613838,1.570980
Bus150,251.545598,-0.524266,251.928230,3.664850,251.612787,1.570979
Bus151,251.552330,-0.524284,251.929220,3.664860,251.604493,1.570974
Bus152,251.552207,-0.524281,251.925560,3.664861,251.606028,1.570974
Bus153,251.502749,-0.524314,251.910413,3.664867,251.551342,1.571037
Bus154,251.762096,-0.524195,252.010458,3.664749,251.859439,1.570663
Bus155,251.593966,-0.524226,251.935396,3.664809,251.679129,1.570894
Bus156,251.551298,-0.524270,251.928055,3.664850,251.613838,1.570980
Bus157,251.545154,-0.524266,251.928231,3.664850,251.612792,1.570979
Bus158,251.552748,-0.524290,251.930465,3.664865,251.600449,1.570972
Bus159,251.552209,-0.524281,251.925366,3.664862,251.606028,1.570974
Bus160,251.501856,-0.524315,251.910090,3.664868,251.550187,1.571038
Bus161,251.762096,-0.524195,252.010458,3.664749,251.859439,1.570663
Bus162,251.594072,-0.524225,251.925644,3.664819,251.679158,1.570893
Bus163,251.593476,-0.524225,251.934396,3.664808,251.679190,1.570893
Bus164,251.551298,-0.524270,251.928055,3.664850,251.613838,1.570980
Bus165,251.544618,-0.524265,251.928233,3.664850,251.612798,1.570979
Bus166,251.552893,-0.524293,251.930898,3.664867,251.599044,1.570972
Bus167,251.552211,-0.524281,251.925188,3.664862,251.606029,1.570974
Bus168,251.496778,-0.524320,251.908256,3.664870,251.543625,1.571044
Bus169,251.762096,-0.524195,252.010458,3.664749,251.859439,1.570663
Bus170,251.594092,-0.524225,251.923801,3.664821,251.679164,1.570893
Bus171,251.592827,-0.524225,251.933067,3.664806,251.679271,1.570891
Bus172,251.551298,-0.524270,251.928055,3.664850,251.613838,1.570980
Bus173,251.544213,-0.524265,251.928234,3.664850,251.612803,1.570979
Bus174,251.552893,-0.524293,251.930898,3.664867,251.599044,1.570972
Bus175,251.552927,-0.524293,251.931022,3.664867,251.587673,1.570983
Bus176,251.552212,-0.524281,251.925114,3.664862,251.606029,1.570974
Bus177,251.493911,-0.524323,251.907219,3.664871,251.539918,1.571047
Bus178,251.594134,-0.524225,251.920000,3.664824,251.679175,1.570893
Bus179,251.592710,-0.524224,251.932820,3.664805,251.679360,1.570891
Bus180,251.592830,-0.524225,251.933078,3.664806,251.678293,1.570892
Bus181,251.551298,-0.524270,251.928055,3.664850,251.613838,1.570980
Bus182,251.543744,-0.524265,251.928235,3.664850,251.612808,1.570980
Bus183,251.552893,-0.524293,251.930898,3.664867,251.599044,1.570972
Bus184,251.552931,-0.524293,251.931036,3.664867,251.586445,1.570984
Bus185,251.552214,-0.524281,251.924956,3.664862,251.606029,1.570974
Bus186,251.491782,-0.524325,251.906450,3.664871,251.537167,1.571050
Bus187,251.592249,-0.524223,251.931848,3.664804,251.679710,1.570890
Bus188,251.592842,-0.524225,251.933122,3.664806,251.674245,1.570896
Bus189,251.551298,-0.524270,251.928055,3.664850,251.613838,1.570980
Bus190,251.543304,-0.524264,251.928236,3.664850,251.612812,1.570980
Bus191,251.552893,-0.524293,251.930898,3.664867,251.599044,1.570972
Bus192,251.552893,-0.524293,251.930898,3.664867,251.599044,1.570972
Bus193,251.552934,-0.524293,251.931049,3.664867,251.585257,1.570986
Bus194,251.552218,-0.524281,251.924551,3.664862,251.606031,1.570974
Bus195,251.489868,-0.524326,251.905759,3.664872,251.534694,1.571052
Bus196,251.591426,-0.524222,251.930113,3.664801,251.680336,1.570889
Bus197,251.592842,-0.524225,251.933122,3.664806,251.674226,1.570896
Bus198,251.592844,-0.524225,251.933127,3.664806,251.673798,1.570897
Bus199,251.551298,-0.524270,251.928055,3.664850,251.613838,1.570980
Bus200,251.542830,-0.524264,251.928238,3.664850,251.612818,1.570980
...
SourceBus_1,6667.736335,-0.000118,6667.970395,4.188663,6667.804608,2.094242
LOAD1,251.896186,-0.524179,252.068972,3.664736,251.991397,1.570459
LOAD2,251.822639,-0.524193,252.024449,3.664753,251.910890,1.570579
LOAD3,251.902544,-0.524185,252.068953,3.664736,251.991327,1.570459
LOAD4,251.626256,-0.524161,251.977275,3.664751,251.775683,1.570801
LOAD5,251.627752,-0.524163,251.977271,3.664751,251.775667,1.570801
LOAD6,251.822636,-0.524193,252.024705,3.664753,251.910889,1.570579
LOAD7,251.594134,-0.524225,251.920000,3.664824,251.679175,1.570893
LOAD8,251.592843,-0.524225,251.933123,3.664806,251.674179,1.570896
LOAD9,251.571687,-0.524202,251.930173,3.664800,251.680552,1.570889
LOAD10,251.592233,-0.524219,251.901646,3.664827,251.680587,1.570884
LOAD11,251.592157,-0.524219,251.908592,3.664820,251.680567,1.570885
LOAD12,251.592852,-0.524225,251.933158,3.664806,251.670996,1.570899
LOAD13,251.552248,-0.524281,251.921796,3.664865,251.606039,1.570974
LOAD14,251.534677,-0.524256,251.928262,3.664850,251.612907,1.570980
LOAD15,251.552281,-0.524281,251.918810,3.664868,251.606048,1.570974
LOAD16,251.553036,-0.524295,251.931416,3.664868,251.551653,1.571019
LOAD17,251.552978,-0.524294,251.931205,3.664868,251.570900,1.571000
LOAD18,251.386945,-0.524257,251.849020,3.664817,251.490623,1.571122
LOAD19,251.460535,-0.524355,251.894838,3.664884,251.490834,1.571091
LOAD20,251.395894,-0.524295,251.872395,3.664847,251.487171,1.571116
LOAD21,251.464797,-0.524337,251.899065,3.664878,251.510752,1.571074
LOAD22,251.397377,-0.524297,251.872391,3.664847,251.487154,1.571116
LOAD23,251.369371,-0.524218,251.809110,3.664819,251.501490,1.571116
LOAD24,251.445094,-0.524411,251.890669,3.664925,251.434711,1.571128
LOAD25,251.182811,-0.523962,251.774579,3.664598,251.541850,1.571204
LOAD26,251.432951,-0.524570,251.884658,3.665064,251.321476,1.571173
LOAD27,251.442730,-0.524451,251.891366,3.664959,251.399849,1.571147
LOAD28,251.442733,-0.524451,251.891375,3.664959,251.398979,1.571148
LOAD29,251.211921,-0.523964,251.751631,3.664614,251.539764,1.571177
LOAD30,251.198745,-0.523977,251.774531,3.664599,251.541676,1.571203
LOAD31,251.211931,-0.523964,251.751631,3.664614,251.539764,1.571177
LOAD32,251.428949,-0.524616,251.893684,3.665091,251.190228,1.571294
LOAD33,251.235391,-0.523963,251.727975,3.664652,251.521784,1.571148
LOAD34,251.230854,-0.524029,251.791262,3.664633,251.534440,1.571193
LOAD35,251.237993,-0.523952,251.701040,3.664677,251.532895,1.571124
LOAD36,251.233306,-0.523961,251.710494,3.664663,251.535280,1.571143
LOAD37,251.233263,-0.523961,251.714352,3.664659,251.535269,1.571144
LOAD38,251.420086,-0.524607,251.885476,3.665084,251.289688,1.571199
LOAD39,251.415162,-0.524611,251.884350,3.665086,251.265545,1.571218
LOAD40,251.411774,-0.524598,251.876485,3.665082,251.283615,1.571196
LOAD41,251.400723,-0.524551,251.844311,3.665083,251.288681,1.571173
LOAD42,251.415194,-0.524612,251.884466,3.665086,251.254914,1.571228
LOAD43,251.392500,-0.524527,251.837642,3.665071,251.287447,1.571170
LOAD44,251.431853,-0.524583,251.868891,3.665091,251.310943,1.571177
LOAD45,251.400734,-0.524551,251.843322,3.665084,251.288684,1.571173
LOAD46,251.384855,-0.524575,251.887991,3.665077,251.288898,1.571203
LOAD47,251.392502,-0.524527,251.837648,3.665071,251.286866,1.571170
LOAD48,251.387849,-0.524578,251.887982,3.665077,251.288865,1.571203
LOAD49,251.386999,-0.524577,251.887984,3.665077,251.288874,1.571203
LOAD50,251.386972,-0.524476,251.787832,3.665092,251.299242,1.571132
LOAD51,251.402926,-0.524575,251.866596,3.665077,251.286001,1.571188
LOAD52,251.367149,-0.524477,251.821787,3.665060,251.297979,1.571155
LOAD53,251.386972,-0.524476,251.792081,3.665088,251.299242,1.571132
LOAD54,251.402392,-0.524575,251.866597,3.665077,251.286007,1.571188
LOAD55,251.366097,-0.524475,251.821835,3.665059,251.298155,1.571155
